Transmission/Synthetic-Grids/ACTIVSg500/ACTIVSg500.EPC
title
This is a synthetic power system model that does NOT represent the actual grid. It was developed as part of the US ARPA-E Grid Data research project and contains no CEII.
Reference: A.B. Birchfield, T. Xu, K.M. Gegner, K.S. Shetye, and T.J. Overbye, "Grid Structural Characteristics as Validation Criteria for Synthetic Networks," to appear, IEEE Transactions on Power Systems, 2017.
!
comments
!
solution parameters
tap    1    tcul  enabled/disabled
phas   1    ps    enabled/disabled
area   1    area  enabled/disabled
svd    1    svd   enabled/disabled
dctap  1    dc    enabled/disabled
gcd    0    gcd   enabled/disabled
jump  0.000200    jumper threshold
toler   0.1000    newton tolerance
sbase 100.0000    system mva base
!
substation data  [  208]           no  name
      1  "WINNSBORO"    : 34.366465 -81.093684
      2  "COLUMBIA 11"    : 34.139526 -80.888209
      3  "SMYRNA"    : 35.011187 -81.386674
      4  "EASTOVER 2"    : 33.826400 -80.622800
      5  "CHAPPELLS 2"    : 34.189937 -81.867693
      6  "PELZER"    : 34.639372 -82.413576
      7  "SENECA 3"    : 34.793900 -82.898600
      8  "MONETTA"    : 33.807397 -81.593640
      9  "LEXINGTON 2"    : 34.001778 -81.272410
     10  "WELLFORD"    : 34.930634 -82.095061
     11  "LAURENS"    : 34.498634 -82.050627
     12  "COLUMBIA 10"    : 33.926751 -80.950364
     13  "WINDSOR"    : 33.484137 -81.509942
     14  "PROSPERITY"    : 34.153252 -81.512463
     15  "NORTH AUGUST"    : 33.614687 -81.984429
     16  "LANDO"    : 34.773948 -81.011121
     17  "GAFFNEY 3"    : 35.113676 -81.714522
     18  "CLARKS HILL "    : 33.643047 -82.107049
     19  "JENKINSVILLE"    : 34.285140 -81.296583
     20  "WOODRUFF"    : 34.764315 -82.044633
     21  "IVA"    : 34.257200 -82.609700
     22  "CAYCE"    : 33.953426 -81.057439
     23  "TROY"    : 33.970417 -82.075911
     24  "SIMPSONVILLE"    : 34.767679 -82.225003
     25  "MAYO"    : 35.081579 -81.863411
     26  "BELTON 2"    : 34.103056 -80.790556
     27  "BRADLEY"    : 34.044227 -82.227378
     28  "ENOREE"    : 34.646690 -81.904455
     29  "HONEA PATH 2"    : 34.527475 -82.374964
     30  "SPRINGFIELD"    : 33.508249 -81.295412
     31  "EDGEMOOR"    : 34.797966 -80.975531
     32  "NEWRY"    : 34.725435 -82.913642
     33  "CLARKS HILL "    : 33.660200 -82.196100
     34  "NEWBERRY"    : 34.305524 -81.627342
     35  "AIKEN 3"    : 33.646054 -81.604486
     36  "ROCK HILL 3"    : 34.939585 -81.031961
     37  "CAMERON"    : 33.576312 -80.647573
     38  "SENECA 2"    : 34.635217 -82.939747
     39  "BLAIR"    : 34.437442 -81.330125
     40  "WALHALLA"    : 34.782583 -83.083166
     41  "ANDERSON 4"    : 34.460802 -82.756514
     42  "PACOLET"    : 34.901747 -81.711273
     43  "ABBEVILLE"    : 34.182424 -82.425604
     44  "AIKEN 2"    : 33.588993 -81.697037
     45  "JOHNSTON"    : 33.838994 -81.803656
     46  "SPARTANBURG "    : 34.892662 -81.921576
     47  "GAFFNEY 2"    : 34.972033 -81.585721
     48  "LEESVILLE"    : 33.916116 -81.453057
     49  "LANGLEY"    : 33.512930 -81.856747
     50  "DONALDS"    : 34.363867 -82.338204
     51  "GREENVILLE 7"    : 34.847112 -82.402264
     52  "COLUMBIA 9"    : 34.026415 -80.958995
     53  "SALEM 3"    : 35.007500 -82.997500
     54  "GREENVILLE 6"    : 34.774425 -82.376610
     55  "COWPENS"    : 35.052613 -81.804142
     56  "WESTMINSTER "    : 34.646708 -83.146844
     57  "SAINT MATTHE"    : 33.692181 -80.787131
     58  "GREENWOOD 2"    : 34.238919 -82.145019
     59  "FINGERVILLE"    : 35.135513 -82.001598
     60  "ROCK HILL 2"    : 34.971373 -81.081285
     61  "YORK 2"    : 35.051400 -81.069400
     62  "CHAPIN"    : 34.134004 -81.339914
     63  "MODOC"    : 33.746791 -82.150948
     64  "SPARTANBURG "    : 34.934028 -82.010697
     65  "BOILING SPRI"    : 35.043045 -81.975107
     66  "GREENVILLE 5"    : 34.856825 -82.296139
     67  "PELION"    : 33.764652 -81.271451
     68  "GRANITEVILLE"    : 33.574691 -81.857801
     69  "IRMO"    : 34.142131 -81.206184
     70  "SALEM 2"    : 34.959400 -82.914700
     71  "WEST UNION"    : 34.780070 -83.008840
     72  "CROSS HILL"    : 34.373805 -81.963361
     73  "FORT LAWN"    : 34.712239 -80.915313
     74  "NORTH"    : 33.626435 -81.079954
     75  "ANDERSON 3"    : 34.559027 -82.763452
     76  "BLACKSBURG 2"    : 35.116068 -81.473073
     77  "LIBERTY"    : 34.767088 -82.686571
     78  "ELLOREE"    : 33.532715 -80.585847
     79  "WAGENER"    : 33.662168 -81.416471
     80  "TRENTON"    : 33.694096 -81.852760
     81  "BATESBURG"    : 33.869101 -81.551078
     82  "COLUMBIA 8"    : 34.055600 -81.217200
     83  "LITTLE MOUNT"    : 34.218134 -81.299071
     84  "CLINTON"    : 34.421034 -81.808045
     85  "WARRENVILLE"    : 33.522812 -81.828197
     86  "SIMPSONVILLE"    : 34.685122 -82.288811
     87  "DUNCAN"    : 34.861302 -82.113804
     88  "NORTH AUGUST"    : 33.526407 -81.939337
     89  "GREENWOOD 1"    : 34.136053 -82.148470
     90  "BELTON 1"    : 34.517279 -82.476617
     91  "VAUCLUSE"    : 33.609668 -81.816976
     92  "UNION 3"    : 34.664200 -81.448600
     93  "MOUNTAIN RES"    : 34.860889 -83.157553
     94  "PICKENS"    : 34.934777 -82.728691
     95  "WESTMINSTER "    : 34.436400 -83.046400
     96  "WEST COLUMBI"    : 33.937674 -81.147203
     97  "WARD"    : 33.901804 -81.705740
     98  "MOORE"    : 34.865620 -82.019463
     99  "WILLISTON"    : 33.403217 -81.422629
    100  "COLUMBIA 7"    : 33.990057 -80.997251
    101  "WATERLOO"    : 34.343368 -82.090062
    102  "BLACKSBURG 1"    : 35.159700 -81.430600
    103  "TAYLORS"    : 34.986636 -82.327451
    104  "GREENVILLE 4"    : 34.869400 -82.363900
    105  "SALEM 1"    : 34.950234 -82.982932
    106  "COLUMBIA 6"    : 33.980254 -81.040670
    107  "AIKEN 1"    : 33.418902 -81.692490
    108  "POMARIA"    : 34.328933 -81.419482
    109  "RIDGE SPRING"    : 33.781876 -81.676812
    110  "GAFFNEY 1"    : 35.072700 -81.613000
    111  "COLUMBIA 5"    : 33.993555 -81.031009
    112  "MARIETTA"    : 35.147593 -82.529539
    113  "ANDERSON 2"    : 34.506502 -82.605626
    114  "SALUDA"    : 34.042392 -81.776152
    115  "FAIR PLAY"    : 34.516190 -82.996445
    116  "HOPKINS"    : 33.936526 -80.692350
    117  "SUNSET"    : 34.991238 -82.842298
    118  "SALLEY"    : 33.595632 -81.321382
    119  "EDGEFIELD"    : 33.821285 -81.997605
    120  "BUFFALO"    : 34.714662 -81.741065
    121  "WARE SHOALS"    : 34.412630 -82.219492
    122  "YORK 1"    : 34.965278 -81.187200
    123  "PIEDMONT"    : 34.702021 -82.462102
    124  "CALHOUN FALL"    : 34.007202 -82.521302
    125  "ANDERSON 1"    : 34.435943 -82.624115
    126  "JACKSON"    : 33.297451 -81.799578
    127  "CROSS ANCHOR"    : 34.651836 -81.844085
    128  "HICKORY GROV"    : 34.950733 -81.448844
    129  "GREAT FALLS "    : 34.600000 -80.892800
    130  "COLUMBIA 4"    : 34.091774 -80.966483
    131  "MAULDIN"    : 34.778208 -82.301835
    132  "GREENVILLE 3"    : 34.811726 -82.331435
    133  "COLUMBIA 3"    : 34.046162 -81.106580
    134  "PENDLETON"    : 34.643979 -82.723237
    135  "SPARTANBURG "    : 34.945078 -81.836373
    136  "CONVERSE"    : 34.983686 -81.826635
    137  "BLACKSTOCK"    : 34.523382 -81.114513
    138  "FORT MILL 3"    : 35.048705 -80.987118
    139  "LANDRUM"    : 35.142074 -82.280831
    140  "SILVERSTREET"    : 34.228719 -81.766201
    141  "ORANGEBURG"    : 33.567550 -80.885684
    142  "GREENVILLE 2"    : 34.830934 -82.458497
    143  "CHAPPELLS 1"    : 34.169722 -81.902500
    144  "RIDGEWAY 2"    : 34.331608 -80.880412
    145  "FOUNTAIN INN"    : 34.668477 -82.190059
    146  "STARR"    : 34.379410 -82.718488
    147  "SPARTANBURG "    : 35.001194 -82.130278
    148  "GASTON 2"    : 33.827497 -81.090983
    149  "SIX MILE"    : 34.833946 -82.854386
    150  "SENECA 1"    : 34.751278 -82.934285
    151  "GILBERT"    : 33.941953 -81.383081
    152  "SWANSEA"    : 33.746888 -81.035516
    153  "INMAN"    : 35.069320 -82.071005
    154  "GREAT FALLS "    : 34.574244 -80.914866
    155  "WHITMIRE"    : 34.492522 -81.604974
    156  "GRAY COURT"    : 34.592282 -82.124610
    157  "WILLIAMSTON "    : 34.625593 -82.548639
    158  "CLEMSON"    : 34.679444 -82.840278
    159  "BEECH ISLAND"    : 33.451527 -81.863403
    160  "CLOVER"    : 35.106284 -81.221471
    161  "NINETY SIX"    : 34.113326 -81.979552
    162  "MC CONNELLS"    : 34.860843 -81.236135
    163  "BEECH ISLAND"    : 33.435000 -81.911100
    164  "GADSDEN"    : 33.798397 -80.741126
    165  "TRAVELERS RE"    : 35.029999 -82.494173
    166  "DUE WEST"    : 34.303618 -82.428815
    167  "BLYTHEWOOD"    : 34.202513 -80.996999
    168  "ROCK HILL 1"    : 34.889870 -81.017838
    169  "HODGES"    : 34.306003 -82.232469
    170  "CHESNEE 2"    : 35.110300 -81.967500
    171  "WILLIAMSTON "    : 34.602200 -82.435000
    172  "EASLEY 2"    : 34.775165 -82.563663
    173  "UNION 2"    : 34.682438 -81.608705
    174  "ARCADIA"    : 34.971205 -81.910208
    175  "CATAWBA"    : 34.831891 -80.909786
    176  "GASTON 1"    : 33.869700 -81.017800
    177  "EASTOVER 1"    : 33.887200 -80.639700
    178  "FORT MILL 2"    : 35.009844 -80.928739
    179  "CAMPOBELLO"    : 35.121041 -82.132234
    180  "EASLEY 1"    : 34.883978 -82.579832
    181  "UNION 1"    : 34.722500 -81.646944
    182  "JONESVILLE"    : 34.830743 -81.648605
    183  "CHESNEE 1"    : 35.126341 -81.907463
    184  "NORRIS"    : 34.764792 -82.756690
    185  "CLEVELAND"    : 35.077658 -82.626703
    186  "GREER 2"    : 35.023830 -82.279564
    187  "CENTRAL"    : 34.738673 -82.799161
    188  "SPARTANBURG "    : 34.884446 -81.843603
    189  "LONG CREEK"    : 34.760806 -83.284445
    190  "GREENVILLE 1"    : 34.924566 -82.438736
    191  "PEAK"    : 34.238760 -81.328235
    192  "COLUMBIA 2"    : 34.029148 -81.002526
    193  "ROEBUCK"    : 34.784549 -81.853472
    194  "SHARON"    : 34.762480 -81.470669
    195  "RIDGEWAY 1"    : 34.335500 -80.702100
    196  "WEST COLUMBI"    : 33.912417 -81.076978
    197  "WEST COLUMBI"    : 33.997527 -81.097406
    198  "TOWNVILLE"    : 34.534253 -82.868342
    199  "GREER 1"    : 34.898246 -82.257851
    200  "PLUM BRANCH"    : 33.769606 -82.241925
...
bus data  [500]               ty  vsched   volt     angle    ar zone  vmax   vmin   date_in date_out pid L own st  latitude  longitude island    sdmon   vmax1      vmin1      dvmax subst
      1 "WINNSBORO 0 " 138.0000 " "  0  :  1 1.012159  1.012159  -10.768348    1    2 -1.0000 -1.0000   400101   391231   0 0   1 0   0.000000   0.000000     0 0   -1.00000   -1.00000    0.00000 1 "WINNSBORO"     1 -1 " " 
      2 "WINNSBORO 1 " 138.0000 " "  0  :  1 1.011580  1.011580  -10.840156    1    2 -1.0000 -1.0000   400101   391231   0 0   1 0   0.000000   0.000000     0 0   -1.00000   -1.00000    0.00000 1 "WINNSBORO"     1 -1 " " 
      3 "COLUMBIA 1~3" 138.0000 " "  0  :  1 1.006230  1.006230  -12.071857    1    2 -1.0000 -1.0000   400101   391231   0 0   1 0   0.000000   0.000000     0 0   -1.00000   -1.00000    0.00000 2 "COLUMBIA 11"     1 -1 " " 
      4 "COLUMBIA 1~4" 138.0000 " "  0  :  1 1.004066  1.004066  -12.322717    1    2 -1.0000 -1.0000   400101   391231   0 0   1 0   0.000000   0.000000     0 0   -1.00000   -1.00000    0.00000 2 "COLUMBIA 11"     1 -1 " " 
      5 "SMYRNA 0    " 138.0000 " "  0  :  1 1.014699  1.014699  -1.264301    1    1 -1.0000 -1.0000   400101   391231   0 0   1 0   0.000000   0.000000     0 0   -1.00000   -1.00000    0.00000 3 "SMYRNA"     2 -1 " " 
      6 "SMYRNA 1    " 138.0000 " "  0  :  1 1.014651  1.014651  -1.270407    1    1 -1.0000 -1.0000   400101   391231   0 0   1 0   0.000000   0.000000     0 0   -1.00000   -1.00000    0.00000 3 "SMYRNA"     2 -1 " " 
      7 "EASTOVER 2 0" 345.0000 " "  0  :  1 1.033863  1.033863  -6.931070    1    2 -1.0000 -1.0000   400101   391231   0 0   1 0   0.000000   0.000000     0 0   -1.00000   -1.00000    0.00000 4 "EASTOVER 2"     1 -1 " " 
      8 "EASTOVER 2 1" 138.0000 " "  0  :  1 1.026963  1.026963  -8.712158    1    2 -1.0000 -1.0000   400101   391231   0 0   1 0   0.000000   0.000000     0 0   -1.00000   -1.00000    0.00000 4 "EASTOVER 2"     1 -1 " " 
      9 "EASTOVER 2 2"  13.8000 " "  0  :  2 1.040000 1.040000  -4.132565    1    2 -1.0000 -1.0000   400101   391231   0 0   1 0   0.000000   0.000000     0 0   -1.00000   -1.00000    0.00000 4 "EASTOVER 2"     1 -1 " " 
     10 "CHAPPELLS ~6" 138.0000 " "  0  :  1 1.016705  1.016705  -13.818521    1    2 -1.0000 -1.0000   400101   391231   0 0   1 0   0.000000   0.000000     0 0   -1.00000   -1.00000    0.00000 5 "CHAPPELLS 2"     1 -1 " " 
     11 "CHAPPELLS ~7" 138.0000 " "  0  :  1 1.016669  1.016669  -13.822668    1    2 -1.0000 -1.0000   400101   391231   0 0   1 0   0.000000   0.000000     0 0   -1.00000   -1.00000    0.00000 5 "CHAPPELLS 2"     1 -1 " " 
     12 "PELZER 0    " 138.0000 " "  0  :  1 0.991801  0.991801  -14.544799    1    1 -1.0000 -1.0000   400101   391231   0 0   1 0   0.000000   0.000000     0 0   -1.00000   -1.00000    0.00000 6 "PELZER"     2 -1 " " 
     13 "PELZER 1    " 138.0000 " "  0  :  1 0.991253  0.991253  -14.609077    1    1 -1.0000 -1.0000   400101   391231   0 0   1 0   0.000000   0.000000     0 0   -1.00000   -1.00000    0.00000 6 "PELZER"     2 -1 " " 
     14 "SENECA 3 0  " 345.0000 " "  0  :  1 1.030087  1.030087  -3.407512    1    1 -1.0000 -1.0000   400101   391231   0 0   1 0   0.000000   0.000000     0 0   -1.00000   -1.00000    0.00000 7 "SENECA 3"     2 -1 " " 
     15 "SENECA 3 1  " 138.0000 " "  0  :  1 1.021380  1.021380  -6.028249    1    1 -1.0000 -1.0000   400101   391231   0 0   1 0   0.000000   0.000000     0 0   -1.00000   -1.00000    0.00000 7 "SENECA 3"     2 -1 " " 
     16 "SENECA 3 2  "  13.8000 " "  0  :  2 1.040000 1.040000  -0.563895    1    1 -1.0000 -1.0000   400101   391231   0 0   1 0   0.000000   0.000000     0 0   -1.00000   -1.00000    0.00000 7 "SENECA 3"     2 -1 " " 
     17 "SENECA 3 3  "  13.8000 " "  0  :  0 1.040000 1.040000  0.000000    1    1 -1.0000 -1.0000   400101   391231   0 0   1 0   0.000000   0.000000     0 0   -1.00000   -1.00000    0.00000 7 "SENECA 3"     2 -1 " " 
     18 "SENECA 3 4  "  13.8000 " "  0  :  2 1.040000 1.040000  0.891476    1    1 -1.0000 -1.0000   400101   391231   0 0   1 0   0.000000   0.000000     0 0   -1.00000   -1.00000    0.00000 7 "SENECA 3"     2 -1 " " 
     19 "MONETTA 0   " 138.0000 " "  0  :  1 1.018348  1.018348  -14.296140    1    2 -1.0000 -1.0000   400101   391231   0 0   1 0   0.000000   0.000000     0 0   -1.00000   -1.00000    0.00000 8 "MONETTA"     1 -1 " " 
     20 "MONETTA 1   " 138.0000 " "  0  :  1 1.018277  1.018277  -14.305529    1    2 -1.0000 -1.0000   400101   391231   0 0   1 0   0.000000   0.000000     0 0   -1.00000   -1.00000    0.00000 8 "MONETTA"     1 -1 " " 
     21 "LEXINGTON ~2" 138.0000 " "  0  :  1 1.009520  1.009520  -12.341430    1    2 -1.0000 -1.0000   400101   391231   0 0   1 0   0.000000   0.000000     0 0   -1.00000   -1.00000    0.00000 9 "LEXINGTON 2"     1 -1 " " 
     22 "LEXINGTON ~3" 138.0000 " "  0  :  1 1.007394  1.007394  -12.594211    1    2 -1.0000 -1.0000   400101   391231   0 0   1 0   0.000000   0.000000     0 0   -1.00000   -1.00000    0.00000 9 "LEXINGTON 2"     1 -1 " " 
     23 "WELLFORD 0  " 345.0000 " "  0  :  1 1.027297  1.027297  -7.930431    1    1 -1.0000 -1.0000   400101   391231   0 0   1 0   0.000000   0.000000     0 0   -1.00000   -1.00000    0.00000 10 "WELLFORD"     2 -1 " " 
     24 "WELLFORD 1  " 138.0000 " "  0  :  1 1.012343  1.012343  -10.816709    1    1 -1.0000 -1.0000   400101   391231   0 0   1 0   0.000000   0.000000     0 0   -1.00000   -1.00000    0.00000 10 "WELLFORD"     2 -1 " " 
     25 "WELLFORD 2  " 138.0000 " "  0  :  1 1.012307  1.012307  -10.821133    1    1 -1.0000 -1.0000   400101   391231   0 0   1 0   0.000000   0.000000     0 0   -1.00000   -1.00000    0.00000 10 "WELLFORD"     2 -1 " " 
     26 "WELLFORD 3  " 138.0000 " "  0  :  1 1.012009  1.012009  -10.860073    1    1 -1.0000 -1.0000   400101   391231   0 0   1 0   0.000000   0.000000     0 0   -1.00000   -1.00000    0.00000 10 "WELLFORD"     2 -1 " " 
     27 "LAURENS 0   " 138.0000 " "  0  :  1 1.013188  1.013188  -16.550327    1    1 -1.0000 -1.0000   400101   391231   0 0   1 0   0.000000   0.000000     0 0   -1.00000   -1.00000    0.00000 11 "LAURENS"     2 -1 " " 
     28 "LAURENS 1   " 138.0000 " "  0  :  1 1.012101  1.012101  -16.683236    1    1 -1.0000 -1.0000   400101   391231   0 0   1 0   0.000000   0.000000     0 0   -1.00000   -1.00000    0.00000 11 "LAURENS"     2 -1 " " 
     29 "COLUMBIA 1~1" 138.0000 " "  0  :  1 1.009431  1.009431  -14.585453    1    2 -1.0000 -1.0000   400101   391231   0 0   1 0   0.000000   0.000000     0 0   -1.00000   -1.00000    0.00000 12 "COLUMBIA 10"     1 -1 " " 
     30 "COLUMBIA 1~2" 138.0000 " "  0  :  1 1.007943  1.007943  -14.761896    1    2 -1.0000 -1.0000   400101   391231   0 0   1 0   0.000000   0.000000     0 0   -1.00000   -1.00000    0.00000 12 "COLUMBIA 10"     1 -1 " " 
     31 "WINDSOR 0   " 138.0000 " "  0  :  1 1.032454  1.032454  -17.056434    1    2 -1.0000 -1.0000   400101   391231   0 0   1 0   0.000000   0.000000     0 0   -1.00000   -1.00000    0.00000 13 "WINDSOR"     1 -1 " " 
     32 "WINDSOR 1   " 138.0000 " "  0  :  1 1.032308  1.032308  -17.073560    1    2 -1.0000 -1.0000   400101   391231   0 0   1 0   0.000000   0.000000     0 0   -1.00000   -1.00000    0.00000 13 "WINDSOR"     1 -1 " " 
     33 "PROSPERITY 0" 138.0000 " "  0  :  1 1.006203  1.006203  -15.223413    1    2 -1.0000 -1.0000   400101   391231   0 0   1 0   0.000000   0.000000     0 0   -1.00000   -1.00000    0.00000 14 "PROSPERITY"     1 -1 " " 
     34 "PROSPERITY 1" 138.0000 " "  0  :  1 1.005829  1.005829  -15.267528    1    2 -1.0000 -1.0000   400101   391231   0 0   1 0   0.000000   0.000000     0 0   -1.00000   -1.00000    0.00000 14 "PROSPERITY"     1 -1 " " 
     35 "NORTH AUGU~3" 138.0000 " "  0  :  1 1.017656  1.017656  -15.888312    1    2 -1.0000 -1.0000   400101   391231   0 0   1 0   0.000000   0.000000     0 0   -1.00000   -1.00000    0.00000 15 "NORTH AUGUSTA 2"     1 -1 " " 
     36 "NORTH AUGU~4" 138.0000 " "  0  :  1 1.017063  1.017063  -15.957294    1    2 -1.0000 -1.0000   400101   391231   0 0   1 0   0.000000   0.000000     0 0   -1.00000   -1.00000    0.00000 15 "NORTH AUGUSTA 2"     1 -1 " " 
     37 "LANDO 0     " 138.0000 " "  0  :  1 1.019326  1.019326  -0.912831    1    1 -1.0000 -1.0000   400101   391231   0 0   1 0   0.000000   0.000000     0 0   -1.00000   -1.00000    0.00000 16 "LANDO"     2 -1 " " 
     38 "LANDO 1     " 138.0000 " "  0  :  1 1.019324  1.019324  -0.913092    1    1 -1.0000 -1.0000   400101   391231   0 0   1 0   0.000000   0.000000     0 0   -1.00000   -1.00000    0.00000 16 "LANDO"     2 -1 " " 
     39 "GAFFNEY 3 0 " 345.0000 " "  0  :  1 1.029536  1.029536  -7.806151    1    1 -1.0000 -1.0000   400101   391231   0 0   1 0   0.000000   0.000000     0 0   -1.00000   -1.00000    0.00000 17 "GAFFNEY 3"     2 -1 " " 
     40 "GAFFNEY 3 1 " 138.0000 " "  0  :  1 1.023080  1.023080  -9.013592    1    1 -1.0000 -1.0000   400101   391231   0 0   1 0   0.000000   0.000000     0 0   -1.00000   -1.00000    0.00000 17 "GAFFNEY 3"     2 -1 " " 
     41 "GAFFNEY 3 2 " 138.0000 " "  0  :  1 1.022126  1.022126  -9.132880    1    1 -1.0000 -1.0000   400101   391231   0 0   1 0   0.000000   0.000000     0 0   -1.00000   -1.00000    0.00000 17 "GAFFNEY 3"     2 -1 " " 
     42 "CLARKS HIL~4" 138.0000 " "  0  :  1 1.024118  1.024118  -13.629013    1    2 -1.0000 -1.0000   400101   391231   0 0   1 0   0.000000   0.000000     0 0   -1.00000   -1.00000    0.00000 18 "CLARKS HILL 2"     1 -1 " " 
     43 "CLARKS HIL~5" 138.0000 " "  0  :  1 1.024058  1.024058  -13.636262    1    2 -1.0000 -1.0000   400101   391231   0 0   1 0   0.000000   0.000000     0 0   -1.00000   -1.00000    0.00000 18 "CLARKS HILL 2"     1 -1 " " 
     44 "JENKINSVIL~1" 138.0000 " "  0  :  1 1.018338  1.018338  -9.780178    1    2 -1.0000 -1.0000   400101   391231   0 0   1 0   0.000000   0.000000     0 0   -1.00000   -1.00000    0.00000 19 "JENKINSVILLE"     1 -1 " " 
     45 "JENKINSVIL~2" 138.0000 " "  0  :  1 1.018304  1.018304  -9.784337    1    2 -1.0000 -1.0000   400101   391231   0 0   1 0   0.000000   0.000000     0 0   -1.00000   -1.00000    0.00000 19 "JENKINSVILLE"     1 -1 " " 
     46 "WOODRUFF 0  " 138.0000 " "  0  :  1 1.004154  1.004154  -13.176609    1    1 -1.0000 -1.0000   400101   391231   0 0   1 0   0.000000   0.000000     0 0   -1.00000   -1.00000    0.00000 20 "WOODRUFF"     2 -1 " " 
     47 "WOODRUFF 1  " 138.0000 " "  0  :  1 1.003494  1.003494  -13.257904    1    1 -1.0000 -1.0000   400101   391231   0 0   1 0   0.000000   0.000000     0 0   -1.00000   -1.00000    0.00000 20 "WOODRUFF"     2 -1 " " 
     48 "IVA 0       " 138.0000 " "  0  :  1 1.000943  1.000943  -17.763770    1    1 -1.0000 -1.0000   400101   391231   0 0   1 0   0.000000   0.000000     0 0   -1.00000   -1.00000    0.00000 21 "IVA"     2 -1 " " 
     49 "IVA 1       "  13.8000 " "  0  :  2 1.040000 1.002792  -17.561683    1    1 -1.0000 -1.0000   400101   391231   0 0   1 0   0.000000   0.000000     0 0   -1.00000   -1.00000    0.00000 21 "IVA"     2 -1 " " 
     50 "IVA 2       "  13.8000 " "  0  :  2 1.040000 1.003095  -17.526040    1    1 -1.0000 -1.0000   400101   391231   0 0   1 0   0.000000   0.000000     0 0   -1.00000   -1.00000    0.00000 21 "IVA"     2 -1 " " 
     51 "IVA 3       " 138.0000 " "  0  :  1 1.000937  1.000937  -17.764478    1    1 -1.0000 -1.0000   400101   391231   0 0   1 0   0.000000   0.000000     0 0   -1.00000   -1.00000    0.00000 21 "IVA"     2 -1 " " 
     52 "IVA 4       " 138.0000 " "  0  :  1 1.000590  1.000590  -17.806277    1    1 -1.0000 -1.0000   400101   391231   0 0   1 0   0.000000   0.000000     0 0   -1.00000   -1.00000    0.00000 21 "IVA"     2 -1 " " 
     53 "CAYCE 0     " 138.0000 " "  0  :  1 1.016529  1.016529  -13.251455    1    2 -1.0000 -1.0000   400101   391231   0 0   1 0   0.000000   0.000000     0 0   -1.00000   -1.00000    0.00000 22 "CAYCE"     1 -1 " " 
     54 "CAYCE 1     " 138.0000 " "  0  :  1 1.016016  1.016016  -13.307067    1    2 -1.0000 -1.0000   400101   391231   0 0   1 0   0.000000   0.000000     0 0   -1.00000   -1.00000    0.00000 22 "CAYCE"     1 -1 " " 
     55 "TROY 0      " 138.0000 " "  0  :  1 1.019129  1.019129  -13.193049    1    1 -1.0000 -1.0000   400101   391231   0 0   1 0   0.000000   0.000000     0 0   -1.00000   -1.00000    0.00000 23 "TROY"     2 -1 " " 
     56 "TROY 1      " 138.0000 " "  0  :  1 1.019096  1.019096  -13.196950    1    1 -1.0000 -1.0000   400101   391231   0 0   1 0   0.000000   0.000000     0 0   -1.00000   -1.00000    0.00000 23 "TROY"     2 -1 " " 
     57 "SIMPSONVIL~3" 345.0000 " "  0  :  1 1.010230  1.010230  -9.631096    1    1 -1.0000 -1.0000   400101   391231   0 0   1 0   0.000000   0.000000     0 0   -1.00000   -1.00000    0.00000 24 "SIMPSONVILLE 2"     2 -1 " " 
     58 "SIMPSONVIL~4" 138.0000 " "  0  :  1 1.001970  1.001970  -12.450890    1    1 -1.0000 -1.0000   400101   391231   0 0   1 0   0.000000   0.000000     0 0   -1.00000   -1.00000    0.00000 24 "SIMPSONVILLE 2"     2 -1 " " 
     59 "SIMPSONVIL~5" 138.0000 " "  0  :  1 0.999635  0.999635  -12.747819    1    1 -1.0000 -1.0000   400101   391231   0 0   1 0   0.000000   0.000000     0 0   -1.00000   -1.00000    0.00000 24 "SIMPSONVILLE 2"     2 -1 " " 
     60 "MAYO 0      " 138.0000 " "  0  :  1 1.019546  1.019546  -9.574278    1    1 -1.0000 -1.0000   400101   391231   0 0   1 0   0.000000   0.000000     0 0   -1.00000   -1.00000    0.00000 25 "MAYO"     2 -1 " " 
     61 "MAYO 1      " 138.0000 " "  0  :  1 1.019543  1.019543  -9.574657    1    1 -1.0000 -1.0000   400101   391231   0 0   1 0   0.000000   0.000000     0 0   -1.00000   -1.00000    0.00000 25 "MAYO"     2 -1 " " 
     62 "BELTON 2 0  " 138.0000 " "  0  :  1 1.009804  1.009804  -11.911949    1    1 -1.0000 -1.0000   400101   391231   0 0   1 0   0.000000   0.000000     0 0   -1.00000   -1.00000    0.00000 26 "BELTON 2"     2 -1 " " 
     63 "BELTON 2 1  "  13.8000 " "  0  :  2 1.040000 1.009804  -11.911949    1    1 -1.0000 -1.0000   400101   391231   0 0   1 0   0.000000   0.000000     0 0   -1.00000   -1.00000    0.00000 26 "BELTON 2"     2 -1 " " 
     64 "BELTON 2 2  " 138.0000 " "  0  :  1 1.009275  1.009275  -11.972508    1    1 -1.0000 -1.0000   400101   391231   0 0   1 0   0.000000   0.000000     0 0   -1.00000   -1.00000    0.00000 26 "BELTON 2"     2 -1 " " 
     65 "BRADLEY 0   " 345.0000 " "  0  :  1 1.025398  1.025398  -10.657074    1    1 -1.0000 -1.0000   400101   391231   0 0   1 0   0.000000   0.000000     0 0   -1.00000   -1.00000    0.00000 27 "BRADLEY"     2 -1 " " 
     66 "BRADLEY 1   " 138.0000 " "  0  :  1 1.021305  1.021305  -12.355135    1    1 -1.0000 -1.0000   400101   391231   0 0   1 0   0.000000   0.000000     0 0   -1.00000   -1.00000    0.00000 27 "BRADLEY"     2 -1 " " 
     67 "BRADLEY 2   " 138.0000 " "  0  :  1 1.021235  1.021235  -12.363122    1    1 -1.0000 -1.0000   400101   391231   0 0   1 0   0.000000   0.000000     0 0   -1.00000   -1.00000    0.00000 27 "BRADLEY"     2 -1 " " 
     68 "ENOREE 0    " 138.0000 " "  0  :  1 1.009545  1.009545  -13.559490    1    1 -1.0000 -1.0000   400101   391231   0 0   1 0   0.000000   0.000000     0 0   -1.00000   -1.00000    0.00000 28 "ENOREE"     2 -1 " " 
     69 "ENOREE 1    " 138.0000 " "  0  :  1 1.009254  1.009254  -13.595925    1    1 -1.0000 -1.0000   400101   391231   0 0   1 0   0.000000   0.000000     0 0   -1.00000   -1.00000    0.00000 28 "ENOREE"     2 -1 " " 
     70 "HONEA PATH~2" 138.0000 " "  0  :  1 0.995200  0.995200  -14.853739    1    1 -1.0000 -1.0000   400101   391231   0 0   1 0   0.000000   0.000000     0 0   -1.00000   -1.00000    0.00000 29 "HONEA PATH 2"     2 -1 " " 
     71 "HONEA PATH~3"  13.8000 " "  0  :  2 1.040000 0.995930  -14.751248    1    1 -1.0000 -1.0000   400101   391231   0 0   1 0   0.000000   0.000000     0 0   -1.00000   -1.00000    0.00000 29 "HONEA PATH 2"     2 -1 " " 
     72 "HONEA PATH~4"  13.8000 " "  0  :  2 1.040000 0.996371  -14.687687    1    1 -1.0000 -1.0000   400101   391231   0 0   1 0   0.000000   0.000000     0 0   -1.00000   -1.00000    0.00000 29 "HONEA PATH 2"     2 -1 " " 
     73 "HONEA PATH~5"  13.8000 " "  0  :  2 1.040000 0.996844  -14.636919    1    1 -1.0000 -1.0000   400101   391231   0 0   1 0   0.000000   0.000000     0 0   -1.00000   -1.00000    0.00000 29 "HONEA PATH 2"     2 -1 " " 
     74 "SPRINGFIEL~1" 138.0000 " "  0  :  1 1.025033  1.025033  -16.893698    1    2 -1.0000 -1.0000   400101   391231   0 0   1 0   0.000000   0.000000     0 0   -1.00000   -1.00000    0.00000 30 "SPRINGFIELD"     1 -1 " " 
     75 "SPRINGFIEL~2" 138.0000 " "  0  :  1 1.024957  1.024957  -16.902900    1    2 -1.0000 -1.0000   400101   391231   0 0   1 0   0.000000   0.000000     0 0   -1.00000   -1.00000    0.00000 30 "SPRINGFIELD"     1 -1 " " 
     76 "EDGEMOOR 0  " 138.0000 " "  0  :  1 1.017795  1.017795  -0.028885    1    1 -1.0000 -1.0000   400101   391231   0 0   1 0   0.000000   0.000000     0 0   -1.00000   -1.00000    0.00000 31 "EDGEMOOR"     2 -1 " " 
     77 "EDGEMOOR 1  " 138.0000 " "  0  :  1 1.017687  1.017687  -0.040910    1    1 -1.0000 -1.0000   400101   391231   0 0   1 0   0.000000   0.000000     0 0   -1.00000   -1.00000    0.00000 31 "EDGEMOOR"     2 -1 " " 
     78 "NEWRY 0     " 138.0000 " "  0  :  1 1.012646  1.012646  -8.449181    1    1 -1.0000 -1.0000   400101   391231   0 0   1 0   0.000000   0.000000     0 0   -1.00000   -1.00000    0.00000 32 "NEWRY"     2 -1 " " 
     79 "NEWRY 1     " 138.0000 " "  0  :  1 1.012640  1.012640  -8.449844    1    1 -1.0000 -1.0000   400101   391231   0 0   1 0   0.000000   0.000000     0 0   -1.00000   -1.00000    0.00000 32 "NEWRY"     2 -1 " " 
     80 "CLARKS HIL~1" 345.0000 " "  0  :  1 1.031877  1.031877  -10.203590    1    2 -1.0000 -1.0000   400101   391231   0 0   1 0   0.000000   0.000000     0 0   -1.00000   -1.00000    0.00000 33 "CLARKS HILL 1"     1 -1 " " 
     81 "CLARKS HIL~2" 138.0000 " "  0  :  1 1.026198  1.026198  -12.787872    1    2 -1.0000 -1.0000   400101   391231   0 0   1 0   0.000000   0.000000     0 0   -1.00000   -1.00000    0.00000 33 "CLARKS HILL 1"     1 -1 " " 
     82 "CLARKS HIL~3"  13.8000 " "  0  :  2 1.040000 1.040000  -4.187069    1    2 -1.0000 -1.0000   400101   391231   0 0   1 0   0.000000   0.000000     0 0   -1.00000   -1.00000    0.00000 33 "CLARKS HILL 1"     1 -1 " " 
     83 "NEWBERRY 0  " 138.0000 " "  0  :  1 1.004284  1.004284  -15.618602    1    2 -1.0000 -1.0000   400101   391231   0 0   1 0   0.000000   0.000000     0 0   -1.00000   -1.00000    0.00000 34 "NEWBERRY"     1 -1 " " 
     84 "NEWBERRY 1  " 138.0000 " "  0  :  1 1.003295  1.003295  -15.740300    1    2 -1.0000 -1.0000   400101   391231   0 0   1 0   0.000000   0.000000     0 0   -1.00000   -1.00000    0.00000 34 "NEWBERRY"     1 -1 " " 
     85 "AIKEN 3 0   " 138.0000 " "  0  :  1 1.026147  1.026147  -15.871977    1    2 -1.0000 -1.0000   400101   391231   0 0   1 0   0.000000   0.000000     0 0   -1.00000   -1.00000    0.00000 35 "AIKEN 3"     1 -1 " " 
     86 "AIKEN 3 1   " 138.0000 " "  0  :  1 1.025857  1.025857  -15.907664    1    2 -1.0000 -1.0000   400101   391231   0 0   1 0   0.000000   0.000000     0 0   -1.00000   -1.00000    0.00000 35 "AIKEN 3"     1 -1 " " 
     87 "ROCK HILL ~5" 138.0000 " "  0  :  1 1.001016  1.001016  0.765842    1    1 -1.0000 -1.0000   400101   391231   0 0   1 0   0.000000   0.000000     0 0   -1.00000   -1.00000    0.00000 36 "ROCK HILL 3"     2 -1 " " 
     88 "ROCK HILL ~6" 138.0000 " "  0  :  1 1.000934  1.000934  0.755621    1    1 -1.0000 -1.0000   400101   391231   0 0   1 0   0.000000   0.000000     0 0   -1.00000   -1.00000    0.00000 36 "ROCK HILL 3"     2 -1 " " 
     89 "CAMERON 0   " 138.0000 " "  0  :  1 1.017804  1.017804  -11.128250    1    2 -1.0000 -1.0000   400101   391231   0 0   1 0   0.000000   0.000000     0 0   -1.00000   -1.00000    0.00000 37 "CAMERON"     1 -1 " " 
     90 "CAMERON 1   " 138.0000 " "  0  :  1 1.017712  1.017712  -11.140380    1    2 -1.0000 -1.0000   400101   391231   0 0   1 0   0.000000   0.000000     0 0   -1.00000   -1.00000    0.00000 37 "CAMERON"     1 -1 " " 
     91 "SENECA 2 0  " 138.0000 " "  0  :  1 1.011754  1.011754  -7.578928    1    1 -1.0000 -1.0000   400101   391231   0 0   1 0   0.000000   0.000000     0 0   -1.00000   -1.00000    0.00000 38 "SENECA 2"     2 -1 " " 
     92 "SENECA 2 1  " 138.0000 " "  0  :  1 1.010764  1.010764  -7.705162    1    1 -1.0000 -1.0000   400101   391231   0 0   1 0   0.000000   0.000000     0 0   -1.00000   -1.00000    0.00000 38 "SENECA 2"     2 -1 " " 
     93 "BLAIR 0     " 138.0000 " "  0  :  1 1.015392  1.015392  -6.433699    1    2 -1.0000 -1.0000   400101   391231   0 0   1 0   0.000000   0.000000     0 0   -1.00000   -1.00000    0.00000 39 "BLAIR"     1 -1 " " 
     94 "BLAIR 1     " 138.0000 " "  0  :  1 1.015320  1.015320  -6.442794    1    2 -1.0000 -1.0000   400101   391231   0 0   1 0   0.000000   0.000000     0 0   -1.00000   -1.00000    0.00000 39 "BLAIR"     1 -1 " " 
     95 "WALHALLA 0  " 138.0000 " "  0  :  1 1.012174  1.012174  -7.546726    1    1 -1.0000 -1.0000   400101   391231   0 0   1 0   0.000000   0.000000     0 0   -1.00000   -1.00000    0.00000 40 "WALHALLA"     2 -1 " " 
     96 "WALHALLA 1  " 138.0000 " "  0  :  1 1.011693  1.011693  -7.605762    1    1 -1.0000 -1.0000   400101   391231   0 0   1 0   0.000000   0.000000     0 0   -1.00000   -1.00000    0.00000 40 "WALHALLA"     2 -1 " " 
     97 "ANDERSON 4 0" 138.0000 " "  0  :  1 1.004651  1.004651  -18.177695    1    1 -1.0000 -1.0000   400101   391231   0 0   1 0   0.000000   0.000000     0 0   -1.00000   -1.00000    0.00000 41 "ANDERSON 4"     2 -1 " " 
     98 "ANDERSON 4 1" 138.0000 " "  0  :  1 1.004048  1.004048  -18.258479    1    1 -1.0000 -1.0000   400101   391231   0 0   1 0   0.000000   0.000000     0 0   -1.00000   -1.00000    0.00000 41 "ANDERSON 4"     2 -1 " " 
     99 "PACOLET 0   " 138.0000 " "  0  :  1 1.022193  1.022193  -9.163343    1    1 -1.0000 -1.0000   400101   391231   0 0   1 0   0.000000   0.000000     0 0   -1.00000   -1.00000    0.00000 42 "PACOLET"     2 -1 " " 
    100 "PACOLET 1   " 138.0000 " "  0  :  1 1.021980  1.021980  -9.188916    1    1 -1.0000 -1.0000   400101   391231   0 0   1 0   0.000000   0.000000     0 0   -1.00000   -1.00000    0.00000 42 "PACOLET"     2 -1 " " 
    101 "PACOLET 2   " 138.0000 " "  0  :  1 1.022179  1.022179  -9.164861    1    1 -1.0000 -1.0000   400101   391231   0 0   1 0   0.000000   0.000000     0 0   -1.00000   -1.00000    0.00000 42 "PACOLET"     2 -1 " " 
    102 "ABBEVILLE 0 " 138.0000 " "  0  :  1 1.002936  1.002936  -16.615939    1    1 -1.0000 -1.0000   400101   391231   0 0   1 0   0.000000   0.000000     0 0   -1.00000   -1.00000    0.00000 43 "ABBEVILLE"     2 -1 " " 
    103 "ABBEVILLE 1 " 138.0000 " "  0  :  1 1.002298  1.002298  -16.697995    1    1 -1.0000 -1.0000   400101   391231   0 0   1 0   0.000000   0.000000     0 0   -1.00000   -1.00000    0.00000 43 "ABBEVILLE"     2 -1 " " 
    104 "AIKEN 2 0   " 138.0000 " "  0  :  1 1.018403  1.018403  -17.457678    1    2 -1.0000 -1.0000   400101   391231   0 0   1 0   0.000000   0.000000     0 0   -1.00000   -1.00000    0.00000 44 "AIKEN 2"     1 -1 " " 
    105 "AIKEN 2 1   " 138.0000 " "  0  :  1 1.017077  1.017077  -17.616391    1    2 -1.0000 -1.0000   400101   391231   0 0   1 0   0.000000   0.000000     0 0   -1.00000   -1.00000    0.00000 44 "AIKEN 2"     1 -1 " " 
    106 "JOHNSTON 0  " 138.0000 " "  0  :  1 1.020273  1.020273  -14.781528    1    2 -1.0000 -1.0000   400101   391231   0 0   1 0   0.000000   0.000000     0 0   -1.00000   -1.00000    0.00000 45 "JOHNSTON"     1 -1 " " 
    107 "JOHNSTON 1  " 138.0000 " "  0  :  1 1.020048  1.020048  -14.808430    1    2 -1.0000 -1.0000   400101   391231   0 0   1 0   0.000000   0.000000     0 0   -1.00000   -1.00000    0.00000 45 "JOHNSTON"     1 -1 " " 
    108 "SPARTANBU~14" 138.0000 " "  0  :  1 1.015132  1.015132  -10.097752    1    1 -1.0000 -1.0000   400101   391231   0 0   1 0   0.000000   0.000000     0 0   -1.00000   -1.00000    0.00000 46 "SPARTANBURG 6"     2 -1 " " 
    109 "SPARTANBU~15" 138.0000 " "  0  :  1 1.014446  1.014446  -10.172782    1    1 -1.0000 -1.0000   400101   391231   0 0   1 0   0.000000   0.000000     0 0   -1.00000   -1.00000    0.00000 46 "SPARTANBURG 6"     2 -1 " " 
    110 "GAFFNEY 2 0 " 138.0000 " "  0  :  1 1.027238  1.027238  -4.906973    1    1 -1.0000 -1.0000   400101   391231   0 0   1 0   0.000000   0.000000     0 0   -1.00000   -1.00000    0.00000 47 "GAFFNEY 2"     2 -1 " " 
    111 "GAFFNEY 2 1 " 138.0000 " "  0  :  1 1.026316  1.026316  -5.027748    1    1 -1.0000 -1.0000   400101   391231   0 0   1 0   0.000000   0.000000     0 0   -1.00000   -1.00000    0.00000 47 "GAFFNEY 2"     2 -1 " " 
    112 "LEESVILLE 0 " 138.0000 " "  0  :  1 1.014080  1.014080  -13.767323    1    2 -1.0000 -1.0000   400101   391231   0 0   1 0   0.000000   0.000000     0 0   -1.00000   -1.00000    0.00000 48 "LEESVILLE"     1 -1 " " 
    113 "LEESVILLE 1 " 138.0000 " "  0  :  1 1.013409  1.013409  -13.842899    1    2 -1.0000 -1.0000   400101   391231   0 0   1 0   0.000000   0.000000     0 0   -1.00000   -1.00000    0.00000 48 "LEESVILLE"     1 -1 " " 
    114 "LANGLEY 0   " 138.0000 " "  0  :  1 1.019149  1.019149  -16.294584    1    2 -1.0000 -1.0000   400101   391231   0 0   1 0   0.000000   0.000000     0 0   -1.00000   -1.00000    0.00000 49 "LANGLEY"     1 -1 " " 
    115 "LANGLEY 1   " 138.0000 " "  0  :  1 1.019079  1.019079  -16.303590    1    2 -1.0000 -1.0000   400101   391231   0 0   1 0   0.000000   0.000000     0 0   -1.00000   -1.00000    0.00000 49 "LANGLEY"     1 -1 " " 
    116 "LANGLEY 2   " 138.0000 " "  0  :  1 1.019106  1.019106  -16.300185    1    2 -1.0000 -1.0000   400101   391231   0 0   1 0   0.000000   0.000000     0 0   -1.00000   -1.00000    0.00000 49 "LANGLEY"     1 -1 " " 
    117 "DONALDS 0   " 138.0000 " "  0  :  1 1.004511  1.004511  -13.926792    1    1 -1.0000 -1.0000   400101   391231   0 0   1 0   0.000000   0.000000     0 0   -1.00000   -1.00000    0.00000 50 "DONALDS"     2 -1 " " 
    118 "DONALDS 1   " 138.0000 " "  0  :  1 1.004365  1.004365  -13.945260    1    1 -1.0000 -1.0000   400101   391231   0 0   1 0   0.000000   0.000000     0 0   -1.00000   -1.00000    0.00000 50 "DONALDS"     2 -1 " " 
    119 "GREENVILL~17" 138.0000 " "  0  :  1 0.987095  0.987095  -15.396824    1    1 -1.0000 -1.0000   400101   391231   0 0   1 0   0.000000   0.000000     0 0   -1.00000   -1.00000    0.00000 51 "GREENVILLE 7"     2 -1 " " 
    120 "GREENVILL~18" 138.0000 " "  0  :  1 0.986654  0.986654  -15.451021    1    1 -1.0000 -1.0000   400101   391231   0 0   1 0   0.000000   0.000000     0 0   -1.00000   -1.00000    0.00000 51 "GREENVILLE 7"     2 -1 " " 
    121 "COLUMBIA 9 0" 138.0000 " "  0  :  1 1.012905  1.012905  -13.971263    1    2 -1.0000 -1.0000   400101   391231   0 0   1 0   0.000000   0.000000     0 0   -1.00000   -1.00000    0.00000 52 "COLUMBIA 9"     1 -1 " " 
    122 "COLUMBIA 9 1" 138.0000 " "  0  :  1 1.012069  1.012069  -14.081572    1    2 -1.0000 -1.0000   400101   391231   0 0   1 0   0.000000   0.000000     0 0   -1.00000   -1.00000    0.00000 52 "COLUMBIA 9"     1 -1 " " 
    123 "SALEM 3 0   " 345.0000 " "  0  :  1 1.030084  1.030084  -3.755483    1    1 -1.0000 -1.0000   400101   391231   0 0   1 0   0.000000   0.000000     0 0   -1.00000   -1.00000    0.00000 53 "SALEM 3"     2 -1 " " 
    124 "SALEM 3 1   " 138.0000 " "  0  :  1 1.027646  1.027646  -4.458626    1    1 -1.0000 -1.0000   400101   391231   0 0   1 0   0.000000   0.000000     0 0   -1.00000   -1.00000    0.00000 53 "SALEM 3"     2 -1 " " 
    125 "SALEM 3 2   "  13.8000 " "  0  :  2 1.040000 1.030084  -3.755483    1    1 -1.0000 -1.0000   400101   391231   0 0   1 0   0.000000   0.000000     0 0   -1.00000   -1.00000    0.00000 53 "SALEM 3"     2 -1 " " 
    126 "SALEM 3 3   "  13.8000 " "  0  :  2 1.040000 1.030084  -3.755483    1    1 -1.0000 -1.0000   400101   391231   0 0   1 0   0.000000   0.000000     0 0   -1.00000   -1.00000    0.00000 53 "SALEM 3"     2 -1 " " 
    127 "SALEM 3 4   "  13.8000 " "  0  :  2 1.040000 1.040000  0.394755    1    1 -1.0000 -1.0000   400101   391231   0 0   1 0   0.000000   0.000000     0 0   -1.00000   -1.00000    0.00000 53 "SALEM 3"     2 -1 " " 
    128 "SALEM 3 5   "  13.8000 " "  0  :  2 1.040000 1.039525  -2.386765    1    1 -1.0000 -1.0000   400101   391231   0 0   1 0   0.000000   0.000000     0 0   -1.00000   -1.00000    0.00000 53 "SALEM 3"     2 -1 " " 
    129 "GREENVILL~15" 138.0000 " "  0  :  1 0.984202  0.984202  -15.914608    1    1 -1.0000 -1.0000   400101   391231   0 0   1 0   0.000000   0.000000     0 0   -1.00000   -1.00000    0.00000 54 "GREENVILLE 6"     2 -1 " " 
    130 "GREENVILL~16" 138.0000 " "  0  :  1 0.982561  0.982561  -16.100251    1    1 -1.0000 -1.0000   400101   391231   0 0   1 0   0.000000   0.000000     0 0   -1.00000   -1.00000    0.00000 54 "GREENVILLE 6"     2 -1 " " 
    131 "COWPENS 0   " 138.0000 " "  0  :  1 1.020259  1.020259  -9.445350    1    1 -1.0000 -1.0000   400101   391231   0 0   1 0   0.000000   0.000000     0 0   -1.00000   -1.00000    0.00000 55 "COWPENS"     2 -1 " " 
    132 "COWPENS 1   " 138.0000 " "  0  :  1 1.019854  1.019854  -9.493030    1    1 -1.0000 -1.0000   400101   391231   0 0   1 0   0.000000   0.000000     0 0   -1.00000   -1.00000    0.00000 55 "COWPENS"     2 -1 " " 
    133 "WESTMINSTE~3" 138.0000 " "  0  :  1 1.012905  1.012905  -7.505509    1    1 -1.0000 -1.0000   400101   391231   0 0   1 0   0.000000   0.000000     0 0   -1.00000   -1.00000    0.00000 56 "WESTMINSTER 2"     2 -1 " " 
    134 "WESTMINSTE~4" 138.0000 " "  0  :  1 1.012341  1.012341  -7.575691    1    1 -1.0000 -1.0000   400101   391231   0 0   1 0   0.000000   0.000000     0 0   -1.00000   -1.00000    0.00000 56 "WESTMINSTER 2"     2 -1 " " 
    135 "SAINT MATT~1" 138.0000 " "  0  :  1 1.015268  1.015268  -11.328869    1    2 -1.0000 -1.0000   400101   391231   0 0   1 0   0.000000   0.000000     0 0   -1.00000   -1.00000    0.00000 57 "SAINT MATTHEWS"     1 -1 " " 
    136 "SAINT MATT~2" 138.0000 " "  0  :  1 1.014865  1.014865  -11.381154    1    2 -1.0000 -1.0000   400101   391231   0 0   1 0   0.000000   0.000000     0 0   -1.00000   -1.00000    0.00000 57 "SAINT MATTHEWS"     1 -1 " " 
    137 "GREENWOOD ~3" 138.0000 " "  0  :  1 1.006819  1.006819  -14.045005    1    1 -1.0000 -1.0000   400101   391231   0 0   1 0   0.000000   0.000000     0 0   -1.00000   -1.00000    0.00000 58 "GREENWOOD 2"     2 -1 " " 
    138 "GREENWOOD ~4" 138.0000 " "  0  :  1 1.005590  1.005590  -14.207124    1    1 -1.0000 -1.0000   400101   391231   0 0   1 0   0.000000   0.000000     0 0   -1.00000   -1.00000    0.00000 58 "GREENWOOD 2"     2 -1 " " 
    139 "FINGERVILL~1" 138.0000 " "  0  :  1 1.015832  1.015832  -10.108334    1    1 -1.0000 -1.0000   400101   391231   0 0   1 0   0.000000   0.000000     0 0   -1.00000   -1.00000    0.00000 59 "FINGERVILLE"     2 -1 " " 
    140 "FINGERVILL~2" 138.0000 " "  0  :  1 1.015828  1.015828  -10.108762    1    1 -1.0000 -1.0000   400101   391231   0 0   1 0   0.000000   0.000000     0 0   -1.00000   -1.00000    0.00000 59 "FINGERVILLE"     2 -1 " " 
    141 "ROCK HILL ~3" 138.0000 " "  0  :  1 1.000582  1.000582  -2.499145    1    1 -1.0000 -1.0000   400101   391231   0 0   1 0   0.000000   0.000000     0 0   -1.00000   -1.00000    0.00000 60 "ROCK HILL 2"     2 -1 " " 
    142 "ROCK HILL ~4" 138.0000 " "  0  :  1 0.997985  0.997985  -2.798498    1    1 -1.0000 -1.0000   400101   391231   0 0   1 0   0.000000   0.000000     0 0   -1.00000   -1.00000    0.00000 60 "ROCK HILL 2"     2 -1 " " 
    143 "YORK 2 0    " 138.0000 " "  0  :  1 1.018777  1.018777  6.502360    1    1 -1.0000 -1.0000   400101   391231   0 0   1 0   0.000000   0.000000     0 0   -1.00000   -1.00000    0.00000 61 "YORK 2"     2 -1 " " 
    144 "YORK 2 1    "  13.8000 " "  0  :  2 1.040000 1.040000  19.035856    1    1 -1.0000 -1.0000   400101   391231   0 0   1 0   0.000000   0.000000     0 0   -1.00000   -1.00000    0.00000 61 "YORK 2"     2 -1 " " 
    145 "YORK 2 2    "  13.8000 " "  0  :  2 1.040000 1.040000  9.200971    1    1 -1.0000 -1.0000   400101   391231   0 0   1 0   0.000000   0.000000     0 0   -1.00000   -1.00000    0.00000 61 "YORK 2"     2 -1 " " 
    146 "CHAPIN 0    " 345.0000 " "  0  :  1 1.028791  1.028791  -7.881098    1    2 -1.0000 -1.0000   400101   391231   0 0   1 0   0.000000   0.000000     0 0   -1.00000   -1.00000    0.00000 62 "CHAPIN"     1 -1 " " 
    147 "CHAPIN 1    " 138.0000 " "  0  :  1 1.017117  1.017117  -8.557608    1    2 -1.0000 -1.0000   400101   391231   0 0   1 0   0.000000   0.000000     0 0   -1.00000   -1.00000    0.00000 62 "CHAPIN"     1 -1 " " 
    148 "CHAPIN 2    " 138.0000 " "  0  :  1 1.016187  1.016187  -8.677833    1    2 -1.0000 -1.0000   400101   391231   0 0   1 0   0.000000   0.000000     0 0   -1.00000   -1.00000    0.00000 62 "CHAPIN"     1 -1 " " 
    149 "MODOC 0     " 138.0000 " "  0  :  1 1.022067  1.022067  -13.723278    1    2 -1.0000 -1.0000   400101   391231   0 0   1 0   0.000000   0.000000     0 0   -1.00000   -1.00000    0.00000 63 "MODOC"     1 -1 " " 
    150 "MODOC 1     " 138.0000 " "  0  :  1 1.022042  1.022042  -13.726173    1    2 -1.0000 -1.0000   400101   391231   0 0   1 0   0.000000   0.000000     0 0   -1.00000   -1.00000    0.00000 63 "MODOC"     1 -1 " " 
    151 "SPARTANBU~11" 345.0000 " "  0  :  1 1.028186  1.028186  -8.035489    1    1 -1.0000 -1.0000   400101   391231   0 0   1 0   0.000000   0.000000     0 0   -1.00000   -1.00000    0.00000 64 "SPARTANBURG 5"     2 -1 " " 
    152 "SPARTANBU~12" 138.0000 " "  0  :  1 1.027361  1.027361  -10.434389    1    1 -1.0000 -1.0000   400101   391231   0 0   1 0   0.000000   0.000000     0 0   -1.00000   -1.00000    0.00000 64 "SPARTANBURG 5"     2 -1 " " 
    153 "SPARTANBU~13" 138.0000 " "  0  :  1 1.026123  1.026123  -10.584818    1    1 -1.0000 -1.0000   400101   391231   0 0   1 0   0.000000   0.000000     0 0   -1.00000   -1.00000    0.00000 64 "SPARTANBURG 5"     2 -1 " " 
    154 "BOILING SP~1" 138.0000 " "  0  :  1 1.010227  1.010227  -10.979578    1    1 -1.0000 -1.0000   400101   391231   0 0   1 0   0.000000   0.000000     0 0   -1.00000   -1.00000    0.00000 65 "BOILING SPRINGS"     2 -1 " " 
    155 "BOILING SP~2" 138.0000 " "  0  :  1 1.009341  1.009341  -11.087115    1    1 -1.0000 -1.0000   400101   391231   0 0   1 0   0.000000   0.000000     0 0   -1.00000   -1.00000    0.00000 65 "BOILING SPRINGS"     2 -1 " " 
    156 "GREENVILL~13" 138.0000 " "  0  :  1 0.989444  0.989444  -14.616821    1    1 -1.0000 -1.0000   400101   391231   0 0   1 0   0.000000   0.000000     0 0   -1.00000   -1.00000    0.00000 66 "GREENVILLE 5"     2 -1 " " 
    157 "GREENVILL~14" 138.0000 " "  0  :  1 0.987781  0.987781  -14.828219    1    1 -1.0000 -1.0000   400101   391231   0 0   1 0   0.000000   0.000000     0 0   -1.00000   -1.00000    0.00000 66 "GREENVILLE 5"     2 -1 " " 
    158 "PELION 0    " 138.0000 " "  0  :  1 1.010848  1.010848  -13.532131    1    2 -1.0000 -1.0000   400101   391231   0 0   1 0   0.000000   0.000000     0 0   -1.00000   -1.00000    0.00000 67 "PELION"     1 -1 " " 
    159 "PELION 1    " 138.0000 " "  0  :  1 1.010478  1.010478  -13.579723    1    2 -1.0000 -1.0000   400101   391231   0 0   1 0   0.000000   0.000000     0 0   -1.00000   -1.00000    0.00000 67 "PELION"     1 -1 " " 
    160 "GRANITEVIL~1" 138.0000 " "  0  :  1 1.019849  1.019849  -15.042923    1    2 -1.0000 -1.0000   400101   391231   0 0   1 0   0.000000   0.000000     0 0   -1.00000   -1.00000    0.00000 68 "GRANITEVILLE"     1 -1 " " 
    161 "GRANITEVIL~2" 138.0000 " "  0  :  1 1.019465  1.019465  -15.091831    1    2 -1.0000 -1.0000   400101   391231   0 0   1 0   0.000000   0.000000     0 0   -1.00000   -1.00000    0.00000 68 "GRANITEVILLE"     1 -1 " " 
    162 "IRMO 0      " 345.0000 " "  0  :  1 1.029080  1.029080  -7.842996    1    2 -1.0000 -1.0000   400101   391231   0 0   1 0   0.000000   0.000000     0 0   -1.00000   -1.00000    0.00000 69 "IRMO"     1 -1 " " 
    163 "IRMO 1      " 138.0000 " "  0  :  1 1.025199  1.025199  -8.622978    1    2 -1.0000 -1.0000   400101   391231   0 0   1 0   0.000000   0.000000     0 0   -1.00000   -1.00000    0.00000 69 "IRMO"     1 -1 " " 
    164 "IRMO 2      " 138.0000 " "  0  :  1 1.023549  1.023549  -8.827381    1    2 -1.0000 -1.0000   400101   391231   0 0   1 0   0.000000   0.000000     0 0   -1.00000   -1.00000    0.00000 69 "IRMO"     1 -1 " " 
    165 "SALEM 2 0   " 345.0000 " "  0  :  1 1.030388  1.030388  -3.402552    1    1 -1.0000 -1.0000   400101   391231   0 0   1 0   0.000000   0.000000     0 0   -1.00000   -1.00000    0.00000 70 "SALEM 2"     2 -1 " " 
    166 "SALEM 2 1   " 138.0000 " "  0  :  1 1.024584  1.024584  -4.970343    1    1 -1.0000 -1.0000   400101   391231   0 0   1 0   0.000000   0.000000     0 0   -1.00000   -1.00000    0.00000 70 "SALEM 2"     2 -1 " " 
    167 "SALEM 2 2   "  13.8000 " "  0  :  2 1.040000 1.040000  -1.181749    1    1 -1.0000 -1.0000   400101   391231   0 0   1 0   0.000000   0.000000     0 0   -1.00000   -1.00000    0.00000 70 "SALEM 2"     2 -1 " " 
    168 "SALEM 2 3   "  13.8000 " "  0  :  2 1.040000 1.040000  0.266644    1    1 -1.0000 -1.0000   400101   391231   0 0   1 0   0.000000   0.000000     0 0   -1.00000   -1.00000    0.00000 70 "SALEM 2"     2 -1 " " 
    169 "SALEM 2 4   "  13.8000 " "  0  :  2 1.040000 1.040000  1.888281    1    1 -1.0000 -1.0000   400101   391231   0 0   1 0   0.000000   0.000000     0 0   -1.00000   -1.00000    0.00000 70 "SALEM 2"     2 -1 " " 
    170 "WEST UNION 0" 138.0000 " "  0  :  1 1.011691  1.011691  -7.684683    1    1 -1.0000 -1.0000   400101   391231   0 0   1 0   0.000000   0.000000     0 0   -1.00000   -1.00000    0.00000 71 "WEST UNION"     2 -1 " " 
    171 "WEST UNION 1" 138.0000 " "  0  :  1 1.011505  1.011505  -7.709885    1    1 -1.0000 -1.0000   400101   391231   0 0   1 0   0.000000   0.000000     0 0   -1.00000   -1.00000    0.00000 71 "WEST UNION"     2 -1 " " 
    172 "CROSS HILL 0" 138.0000 " "  0  :  1 1.004978  1.004978  -12.799090    1    1 -1.0000 -1.0000   400101   391231   0 0   1 0   0.000000   0.000000     0 0   -1.00000   -1.00000    0.00000 72 "CROSS HILL"     2 -1 " " 
    173 "CROSS HILL 1" 138.0000 " "  0  :  1 1.004931  1.004931  -12.804343    1    1 -1.0000 -1.0000   400101   391231   0 0   1 0   0.000000   0.000000     0 0   -1.00000   -1.00000    0.00000 72 "CROSS HILL"     2 -1 " " 
    174 "CROSS HILL 2" 138.0000 " "  0  :  1 1.004877  1.004877  -12.811037    1    1 -1.0000 -1.0000   400101   391231   0 0   1 0   0.000000   0.000000     0 0   -1.00000   -1.00000    0.00000 72 "CROSS HILL"     2 -1 " " 
    175 "FORT LAWN 0 " 345.0000 " "  0  :  1 1.033935  1.033935  -3.550348    1    1 -1.0000 -1.0000   400101   391231   0 0   1 0   0.000000   0.000000     0 0   -1.00000   -1.00000    0.00000 73 "FORT LAWN"     2 -1 " " 
    176 "FORT LAWN 1 " 138.0000 " "  0  :  1 1.023048  1.023048  -2.722604    1    1 -1.0000 -1.0000   400101   391231   0 0   1 0   0.000000   0.000000     0 0   -1.00000   -1.00000    0.00000 73 "FORT LAWN"     2 -1 " " 
    177 "FORT LAWN 2 " 138.0000 " "  0  :  1 1.022916  1.022916  -2.739433    1    1 -1.0000 -1.0000   400101   391231   0 0   1 0   0.000000   0.000000     0 0   -1.00000   -1.00000    0.00000 73 "FORT LAWN"     2 -1 " " 
    178 "FORT LAWN 3 " 138.0000 " "  0  :  1 1.022946  1.022946  -2.733694    1    1 -1.0000 -1.0000   400101   391231   0 0   1 0   0.000000   0.000000     0 0   -1.00000   -1.00000    0.00000 73 "FORT LAWN"     2 -1 " " 
    179 "NORTH 0     " 138.0000 " "  0  :  1 1.004248  1.004248  -14.756946    1    2 -1.0000 -1.0000   400101   391231   0 0   1 0   0.000000   0.000000     0 0   -1.00000   -1.00000    0.00000 74 "NORTH"     1 -1 " " 
    180 "NORTH 1     " 138.0000 " "  0  :  1 1.004026  1.004026  -14.781985    1    2 -1.0000 -1.0000   400101   391231   0 0   1 0   0.000000   0.000000     0 0   -1.00000   -1.00000    0.00000 74 "NORTH"     1 -1 " " 
    181 "ANDERSON 3 0" 138.0000 " "  0  :  1 1.011215  1.011215  -17.974970    1    1 -1.0000 -1.0000   400101   391231   0 0   1 0   0.000000   0.000000     0 0   -1.00000   -1.00000    0.00000 75 "ANDERSON 3"     2 -1 " " 
    182 "ANDERSON 3 1" 138.0000 " "  0  :  1 1.009884  1.009884  -18.139381    1    1 -1.0000 -1.0000   400101   391231   0 0   1 0   0.000000   0.000000     0 0   -1.00000   -1.00000    0.00000 75 "ANDERSON 3"     2 -1 " " 
    183 "BLACKSBURG~6" 138.0000 " "  0  :  1 1.024836  1.024836  -6.661880    1    1 -1.0000 -1.0000   400101   391231   0 0   1 0   0.000000   0.000000     0 0   -1.00000   -1.00000    0.00000 76 "BLACKSBURG 2"     2 -1 " " 
    184 "BLACKSBURG~7" 138.0000 " "  0  :  1 1.024440  1.024440  -6.709043    1    1 -1.0000 -1.0000   400101   391231   0 0   1 0   0.000000   0.000000     0 0   -1.00000   -1.00000    0.00000 76 "BLACKSBURG 2"     2 -1 " " 
    185 "LIBERTY 0   " 138.0000 " "  0  :  1 1.009542  1.009542  -9.259349    1    1 -1.0000 -1.0000   400101   391231   0 0   1 0   0.000000   0.000000     0 0   -1.00000   -1.00000    0.00000 77 "LIBERTY"     2 -1 " " 
    186 "LIBERTY 1   " 138.0000 " "  0  :  1 1.008921  1.008921  -9.333731    1    1 -1.0000 -1.0000   400101   391231   0 0   1 0   0.000000   0.000000     0 0   -1.00000   -1.00000    0.00000 77 "LIBERTY"     2 -1 " " 
    187 "ELLOREE 0   " 138.0000 " "  0  :  1 1.017105  1.017105  -11.513978    1    2 -1.0000 -1.0000   400101   391231   0 0   1 0   0.000000   0.000000     0 0   -1.00000   -1.00000    0.00000 78 "ELLOREE"     1 -1 " " 
    188 "ELLOREE 1   " 138.0000 " "  0  :  1 1.016941  1.016941  -11.532133    1    2 -1.0000 -1.0000   400101   391231   0 0   1 0   0.000000   0.000000     0 0   -1.00000   -1.00000    0.00000 78 "ELLOREE"     1 -1 " " 
    189 "WAGENER 0   " 138.0000 " "  0  :  1 1.027820  1.027820  -17.179459    1    2 -1.0000 -1.0000   400101   391231   0 0   1 0   0.000000   0.000000     0 0   -1.00000   -1.00000    0.00000 79 "WAGENER"     1 -1 " " 
    190 "WAGENER 1   " 138.0000 " "  0  :  1 1.027615  1.027615  -17.201031    1    2 -1.0000 -1.0000   400101   391231   0 0   1 0   0.000000   0.000000     0 0   -1.00000   -1.00000    0.00000 79 "WAGENER"     1 -1 " " 
    191 "TRENTON 0   " 138.0000 " "  0  :  1 1.019627  1.019627  -15.768651    1    2 -1.0000 -1.0000   400101   391231   0 0   1 0   0.000000   0.000000     0 0   -1.00000   -1.00000    0.00000 80 "TRENTON"     1 -1 " " 
    192 "TRENTON 1   " 138.0000 " "  0  :  1 1.019354  1.019354  -15.801108    1    2 -1.0000 -1.0000   400101   391231   0 0   1 0   0.000000   0.000000     0 0   -1.00000   -1.00000    0.00000 80 "TRENTON"     1 -1 " " 
    193 "BATESBURG 0 " 138.0000 " "  0  :  1 1.015302  1.015302  -14.252592    1    2 -1.0000 -1.0000   400101   391231   0 0   1 0   0.000000   0.000000     0 0   -1.00000   -1.00000    0.00000 81 "BATESBURG"     1 -1 " " 
    194 "BATESBURG 1 " 138.0000 " "  0  :  1 1.014818  1.014818  -14.310301    1    2 -1.0000 -1.0000   400101   391231   0 0   1 0   0.000000   0.000000     0 0   -1.00000   -1.00000    0.00000 81 "BATESBURG"     1 -1 " " 
    195 "COLUMBIA 8 0" 345.0000 " "  0  :  1 1.029082  1.029082  -7.870717    1    2 -1.0000 -1.0000   400101   391231   0 0   1 0   0.000000   0.000000     0 0   -1.00000   -1.00000    0.00000 82 "COLUMBIA 8"     1 -1 " " 
    196 "COLUMBIA 8 1" 138.0000 " "  0  :  1 1.019696  1.019696  -10.123890    1    2 -1.0000 -1.0000   400101   391231   0 0   1 0   0.000000   0.000000     0 0   -1.00000   -1.00000    0.00000 82 "COLUMBIA 8"     1 -1 " " 
    197 "COLUMBIA 8 2"  13.8000 " "  0  :  2 1.040000 1.040000  -3.003092    1    2 -1.0000 -1.0000   400101   391231   0 0   1 0   0.000000   0.000000     0 0   -1.00000   -1.00000    0.00000 82 "COLUMBIA 8"     1 -1 " " 
    198 "COLUMBIA 8 3"  13.8000 " "  0  :  2 1.040000 1.040000  -5.456007    1    2 -1.0000 -1.0000   400101   391231   0 0   1 0   0.000000   0.000000     0 0   -1.00000   -1.00000    0.00000 82 "COLUMBIA 8"     1 -1 " " 
    199 "COLUMBIA 8 4" 138.0000 " "  0  :  1 1.018355  1.018355  -10.272974    1    2 -1.0000 -1.0000   400101   391231   0 0   1 0   0.000000   0.000000     0 0   -1.00000   -1.00000    0.00000 82 "COLUMBIA 8"     1 -1 " " 
    200 "LITTLE MOU~1" 138.0000 " "  0  :  1 1.020696  1.020696  -9.381187    1    2 -1.0000 -1.0000   400101   391231   0 0   1 0   0.000000   0.000000     0 0   -1.00000   -1.00000    0.00000 83 "LITTLE MOUNTAIN"     1 -1 " " 
...
branch data  [  466]                                          ck  se  ------------long_id_------------    st resist   react   charge   rate1  rate2  rate3  rate4 aloss  lngth 
      2 "WINNSBORO 1 " 138.00       1 "WINNSBORO 0 " 138.00  "1 "   1 " "  :  1  0.000531  0.003140  0.000000   76.5    0.0    0.0    0.0 0.000    0.0 /
   1    2  0.000000  0.000000  1.000000   400101   391231   0 1  0    0.0    0.0    0.0    0.0   1 1.000   0 0.000   0 0.000   0 0.000   0 0.000   0 0.000   0 0.000   0 0.000  0 0  0  0  0  90.000 
      3 "COLUMBIA 1~3" 138.00     479 "RIDGEWAY 1 0" 138.00  "1 "   1 " "  :  1  0.007258  0.069699  0.022500  320.3    0.0    0.0    0.0 0.000    0.0 /
   1    2  0.000000  0.000000  1.000000   400101   391231   0 1  0    0.0    0.0    0.0    0.0   1 1.000   0 0.000   0 0.000   0 0.000   0 0.000   0 0.000   0 0.000   0 0.000  0 0  0  0  0  90.000 
      4 "COLUMBIA 1~4" 138.00       3 "COLUMBIA 1~3" 138.00  "1 "   1 " "  :  1  0.000692  0.003518  0.000000  225.1    0.0    0.0    0.0 0.000    0.0 /
   1    2  0.000000  0.000000  1.000000   400101   391231   0 1  0    0.0    0.0    0.0    0.0   1 1.000   0 0.000   0 0.000   0 0.000   0 0.000   0 0.000   0 0.000   0 0.000  0 0  0  0  0  90.000 
      6 "SMYRNA 1    " 138.00       5 "SMYRNA 0    " 138.00  "1 "   1 " "  :  1  0.000556  0.003563  0.000000    4.5    0.0    0.0    0.0 0.000    0.0 /
   1    1  0.000000  0.000000  1.000000   400101   391231   0 1  0    0.0    0.0    0.0    0.0   1 1.000   0 0.000   0 0.000   0 0.000   0 0.000   0 0.000   0 0.000   0 0.000  0 0  0  0  0  90.000 
      7 "EASTOVER 2 0" 345.00     232 "WEST COLUM~3" 345.00  "1 "   1 " "  :  1  0.001119  0.014808  0.312051 1493.9    0.0    0.0    0.0 0.000    0.0 /
   1    2  0.000000  0.000000  1.000000   400101   391231   0 1  0    0.0    0.0    0.0    0.0   1 1.000   0 0.000   0 0.000   0 0.000   0 0.000   0 0.000   0 0.000   0 0.000  0 0  0  0  0  90.000 
      7 "EASTOVER 2 0" 345.00     262 "COLUMBIA 6 0" 345.00  "1 "   1 " "  :  1  0.000947  0.013749  0.239936 1493.9    0.0    0.0    0.0 0.000    0.0 /
   1    2  0.000000  0.000000  1.000000   400101   391231   0 1  0    0.0    0.0    0.0    0.0   1 1.000   0 0.000   0 0.000   0 0.000   0 0.000   0 0.000   0 0.000   0 0.000  0 0  0  0  0  90.000 
      8 "EASTOVER 2 1" 138.00     287 "HOPKINS 0   " 138.00  "1 "   1 " "  :  1  0.003727  0.035786  0.011552  320.3    0.0    0.0    0.0 0.000    0.0 /
   1    2  0.000000  0.000000  1.000000   400101   391231   0 1  0    0.0    0.0    0.0    0.0   1 1.000   0 0.000   0 0.000   0 0.000   0 0.000   0 0.000   0 0.000   0 0.000  0 0  0  0  0  90.000 
      8 "EASTOVER 2 1" 138.00     457 "EASTOVER 1 0" 138.00  "1 "   1 " "  :  1  0.001974  0.018955  0.006119  320.3    0.0    0.0    0.0 0.000    0.0 /
   1    2  0.000000  0.000000  1.000000   400101   391231   0 1  0    0.0    0.0    0.0    0.0   1 1.000   0 0.000   0 0.000   0 0.000   0 0.000   0 0.000   0 0.000   0 0.000  0 0  0  0  0  90.000 
     10 "CHAPPELLS ~6" 138.00     349 "CHAPPELLS ~1" 138.00  "1 "   1 " "  :  1  0.001402  0.013460  0.004345  320.3    0.0    0.0    0.0 0.000    0.0 /
   1    2  0.000000  0.000000  1.000000   400101   391231   0 1  0    0.0    0.0    0.0    0.0   1 1.000   0 0.000   0 0.000   0 0.000   0 0.000   0 0.000   0 0.000   0 0.000  0 0  0  0  0  90.000 
     11 "CHAPPELLS ~7" 138.00      10 "CHAPPELLS ~6" 138.00  "1 "   1 " "  :  1  0.000655  0.003201  0.000000    4.0    0.0    0.0    0.0 0.000    0.0 /
   1    2  0.000000  0.000000  1.000000   400101   391231   0 1  0    0.0    0.0    0.0    0.0   1 1.000   0 0.000   0 0.000   0 0.000   0 0.000   0 0.000   0 0.000   0 0.000  0 0  0  0  0  90.000 
     12 "PELZER 0    " 138.00     216 "BELTON 1 0  " 138.00  "1 "   1 " "  :  1  0.003962  0.038048  0.012282  320.3    0.0    0.0    0.0 0.000    0.0 /
   1    1  0.000000  0.000000  1.000000   400101   391231   0 1  0    0.0    0.0    0.0    0.0   1 1.000   0 0.000   0 0.000   0 0.000   0 0.000   0 0.000   0 0.000   0 0.000  0 0  0  0  0  90.000 
     12 "PELZER 0    " 138.00     304 "PIEDMONT 0  " 138.00  "1 "   1 " "  :  1  0.002310  0.021191  0.007510  320.3    0.0    0.0    0.0 0.000    0.0 /
   1    1  0.000000  0.000000  1.000000   400101   391231   0 1  0    0.0    0.0    0.0    0.0   1 1.000   0 0.000   0 0.000   0 0.000   0 0.000   0 0.000   0 0.000   0 0.000  0 0  0  0  0  90.000 
     12 "PELZER 0    " 138.00     441 "WILLIAMSTO~2" 138.00  "1 "   1 " "  :  1  0.001565  0.015025  0.004850  320.3    0.0    0.0    0.0 0.000    0.0 /
   1    1  0.000000  0.000000  1.000000   400101   391231   0 1  0    0.0    0.0    0.0    0.0   1 1.000   0 0.000   0 0.000   0 0.000   0 0.000   0 0.000   0 0.000   0 0.000  0 0  0  0  0  90.000 
     13 "PELZER 1    " 138.00      12 "PELZER 0    " 138.00  "1 "   1 " "  :  1  0.000623  0.003134  0.000000   65.5    0.0    0.0    0.0 0.000    0.0 /
...